CM NEC2 Input File produced by helix2nec
CM Parameters:
CM Helix 0: H1=1.08600E+02 D1=4.77000E+01 H2=1.14200E+02 D2=5.02000E+01
CM turns=5.00000E-01 R=2.00000E+00, wire=1.50000E+00
CM offset=0.00000E+00 theta=0.00000E+00 feed
CM 8.20000E+02 - 9.50000E+02 MHz in 1.00000E+00 MHz steps
CE
GW 1 5 3.53553E-03 3.53553E-03 0.00000E+00 2.18500E-02 0.00000E+00 0.00000E+00 7.50000E-04
GW 2 5 -3.53553E-03 -3.53553E-03 0.00000E+00 -2.18500E-02 -0.00000E+00 0.00000E+00 7.50000E-04
GW 3 1 2.18500E-02 0.00000E+00 0.00000E+00 2.28493E-02 -1.77115E-04 -2.67949E-04 7.50000E-04
GW 4 1 -2.18500E-02 -0.00000E+00 0.00000E+00 -2.28493E-02 1.77115E-04 -2.67949E-04 7.50000E-04
GW 5 1 2.28493E-02 -1.77115E-04 -2.67949E-04 2.35722E-02 -6.82089E-04 -1.00000E-03 7.50000E-04
GW 6 1 -2.28493E-02 1.77115E-04 -2.67949E-04 -2.35722E-02 6.82089E-04 -1.00000E-03 7.50000E-04
GW 7 1 2.35722E-02 -6.82089E-04 -1.00000E-03 2.38101E-02 -1.37910E-03 -2.00000E-03 7.50000E-04
GW 8 1 -2.35722E-02 6.82089E-04 -1.00000E-03 -2.38101E-02 1.37910E-03 -2.00000E-03 7.50000E-04
GW 9 1 2.38101E-02 -1.37910E-03 -2.00000E-03 2.30510E-02 -6.12173E-03 -8.97333E-03 7.50000E-04
GW 10 1 -2.38101E-02 1.37910E-03 -2.00000E-03 -2.30510E-02 6.12173E-03 -8.97333E-03 7.50000E-04
GW 11 1 2.30510E-02 -6.12173E-03 -8.97333E-03 2.13570E-02 -1.06161E-02 -1.59467E-02 7.50000E-04
GW 12 1 -2.30510E-02 6.12173E-03 -8.97333E-03 -2.13570E-02 1.06161E-02 -1.59467E-02 7.50000E-04
GW 13 1 2.13570E-02 -1.06161E-02 -1.59467E-02 1.87969E-02 -1.46799E-02 -2.29200E-02 7.50000E-04
GW 14 1 -2.13570E-02 1.06161E-02 -1.59467E-02 -1.87969E-02 1.46799E-02 -2.29200E-02 7.50000E-04
GW 15 1 1.87969E-02 -1.46799E-02 -2.29200E-02 1.54745E-02 -1.81484E-02 -2.98933E-02 7.50000E-04
GW 16 1 -1.87969E-02 1.46799E-02 -2.29200E-02 -1.54745E-02 1.81484E-02 -2.98933E-02 7.50000E-04
GW 17 1 1.54745E-02 -1.81484E-02 -2.98933E-02 1.15245E-02 -2.08808E-02 -3.68667E-02 7.50000E-04
GW 18 1 -1.54745E-02 1.81484E-02 -2.98933E-02 -1.15245E-02 2.08808E-02 -3.68667E-02 7.50000E-04
GW 19 1 1.15245E-02 -2.08808E-02 -3.68667E-02 7.10710E-03 -2.27665E-02 -4.38400E-02 7.50000E-04
GW 20 1 -1.15245E-02 2.08808E-02 -3.68667E-02 -7.10710E-03 2.27665E-02 -4.38400E-02 7.50000E-04
GW 21 1 7.10710E-03 -2.27665E-02 -4.38400E-02 2.40150E-03 -2.37288E-02 -5.08133E-02 7.50000E-04
GW 22 1 -7.10710E-03 2.27665E-02 -4.38400E-02 -2.40150E-03 2.37288E-02 -5.08133E-02 7.50000E-04
GW 23 1 2.40150E-03 -2.37288E-02 -5.08133E-02 -2.40150E-03 -2.37288E-02 -5.77867E-02 7.50000E-04
GW 24 1 -2.40150E-03 2.37288E-02 -5.08133E-02 2.40150E-03 2.37288E-02 -5.77867E-02 7.50000E-04
GW 25 1 -2.40150E-03 -2.37288E-02 -5.77867E-02 -7.10710E-03 -2.27665E-02 -6.47600E-02 7.50000E-04
GW 26 1 2.40150E-03 2.37288E-02 -5.77867E-02 7.10710E-03 2.27665E-02 -6.47600E-02 7.50000E-04
GW 27 1 -7.10710E-03 -2.27665E-02 -6.47600E-02 -1.15245E-02 -2.08808E-02 -7.17333E-02 7.50000E-04
GW 28 1 7.10710E-03 2.27665E-02 -6.47600E-02 1.15245E-02 2.08808E-02 -7.17333E-02 7.50000E-04
GW 29 1 -1.15245E-02 -2.08808E-02 -7.17333E-02 -1.54745E-02 -1.81484E-02 -7.87067E-02 7.50000E-04
GW 30 1 1.15245E-02 2.08808E-02 -7.17333E-02 1.54745E-02 1.81484E-02 -7.87067E-02 7.50000E-04
GW 31 1 -1.54745E-02 -1.81484E-02 -7.87067E-02 -1.87969E-02 -1.46799E-02 -8.56800E-02 7.50000E-04
GW 32 1 1.54745E-02 1.81484E-02 -7.87067E-02 1.87969E-02 1.46799E-02 -8.56800E-02 7.50000E-04
GW 33 1 -1.87969E-02 -1.46799E-02 -8.56800E-02 -2.13570E-02 -1.06161E-02 -9.26533E-02 7.50000E-04
GW 34 1 1.87969E-02 1.46799E-02 -8.56800E-02 2.13570E-02 1.06161E-02 -9.26533E-02 7.50000E-04
GW 35 1 -2.13570E-02 -1.06161E-02 -9.26533E-02 -2.30510E-02 -6.12173E-03 -9.96267E-02 7.50000E-04
GW 36 1 2.13570E-02 1.06161E-02 -9.26533E-02 2.30510E-02 6.12173E-03 -9.96267E-02 7.50000E-04
GW 37 1 -2.30510E-02 -6.12173E-03 -9.96267E-02 -2.38101E-02 -1.37910E-03 -1.06600E-01 7.50000E-04
GW 38 1 2.30510E-02 6.12173E-03 -9.96267E-02 2.38101E-02 1.37910E-03 -1.06600E-01 7.50000E-04
GW 39 1 -2.38101E-02 -1.37910E-03 -1.06600E-01 -2.35722E-02 -6.82089E-04 -1.07600E-01 7.50000E-04
GW 40 1 2.38101E-02 1.37910E-03 -1.06600E-01 2.35722E-02 6.82089E-04 -1.07600E-01 7.50000E-04
GW 41 1 -2.35722E-02 -6.82089E-04 -1.07600E-01 -2.28493E-02 -1.77115E-04 -1.08332E-01 7.50000E-04
GW 42 1 2.35722E-02 6.82089E-04 -1.07600E-01 2.28493E-02 1.77115E-04 -1.08332E-01 7.50000E-04
GW 43 1 -2.28493E-02 -1.77115E-04 -1.08332E-01 -2.18500E-02 4.51908E-15 -1.08600E-01 7.50000E-04
GW 44 1 2.28493E-02 1.77115E-04 -1.08332E-01 2.18500E-02 -4.51908E-15 -1.08600E-01 7.50000E-04
GW 45 9 -2.18500E-02 4.51908E-15 -1.08600E-01 2.18500E-02 -4.51908E-15 -1.08600E-01 7.50000E-04
GW 46 5 3.53553E-03 3.53553E-03 0.00000E+00 -2.38881E-15 2.31000E-02 0.00000E+00 7.50000E-04
GW 47 5 -3.53553E-03 -3.53553E-03 0.00000E+00 2.38881E-15 -2.31000E-02 0.00000E+00 7.50000E-04
GW 48 1 -2.38881E-15 2.31000E-02 0.00000E+00 1.77644E-04 2.40993E-02 -2.67949E-04 7.50000E-04
GW 49 1 2.38881E-15 -2.31000E-02 0.00000E+00 -1.77644E-04 -2.40993E-02 -2.67949E-04 7.50000E-04
GW 50 1 1.77644E-04 2.40993E-02 -2.67949E-04 6.83033E-04 2.48227E-02 -1.00000E-03 7.50000E-04
GW 51 1 -1.77644E-04 -2.40993E-02 -2.67949E-04 -6.83033E-04 -2.48227E-02 -1.00000E-03 7.50000E-04
GW 52 1 6.83033E-04 2.48227E-02 -1.00000E-03 1.38028E-03 2.50620E-02 -2.00000E-03 7.50000E-04
GW 53 1 -6.83033E-04 -2.48227E-02 -1.00000E-03 -1.38028E-03 -2.50620E-02 -2.00000E-03 7.50000E-04
GW 54 1 1.38028E-03 2.50620E-02 -2.00000E-03 6.38290E-03 2.42749E-02 -9.34667E-03 7.50000E-04
GW 55 1 -1.38028E-03 -2.50620E-02 -2.00000E-03 -6.38290E-03 -2.42749E-02 -9.34667E-03 7.50000E-04
GW 56 1 6.38290E-03 2.42749E-02 -9.34667E-03 1.11257E-02 2.24995E-02 -1.66933E-02 7.50000E-04
GW 57 1 -6.38290E-03 -2.42749E-02 -9.34667E-03 -1.11257E-02 -2.24995E-02 -1.66933E-02 7.50000E-04
GW 58 1 1.11257E-02 2.24995E-02 -1.66933E-02 1.54156E-02 1.98083E-02 -2.40400E-02 7.50000E-04
GW 59 1 -1.11257E-02 -2.24995E-02 -1.66933E-02 -1.54156E-02 -1.98083E-02 -2.40400E-02 7.50000E-04
GW 60 1 1.54156E-02 1.98083E-02 -2.40400E-02 1.90780E-02 1.63108E-02 -3.13867E-02 7.50000E-04
GW 61 1 -1.54156E-02 -1.98083E-02 -2.40400E-02 -1.90780E-02 -1.63108E-02 -3.13867E-02 7.50000E-04
GW 62 1 1.90780E-02 1.63108E-02 -3.13867E-02 2.19637E-02 1.21493E-02 -3.87333E-02 7.50000E-04
GW 63 1 -1.90780E-02 -1.63108E-02 -3.13867E-02 -2.19637E-02 -1.21493E-02 -3.87333E-02 7.50000E-04
GW 64 1 2.19637E-02 1.21493E-02 -3.87333E-02 2.39554E-02 7.49318E-03 -4.60800E-02 7.50000E-04
GW 65 1 -2.19637E-02 -1.21493E-02 -3.87333E-02 -2.39554E-02 -7.49318E-03 -4.60800E-02 7.50000E-04
GW 66 1 2.39554E-02 7.49318E-03 -4.60800E-02 2.49720E-02 2.53209E-03 -5.34267E-02 7.50000E-04
GW 67 1 -2.39554E-02 -7.49318E-03 -4.60800E-02 -2.49720E-02 -2.53209E-03 -5.34267E-02 7.50000E-04
GW 68 1 2.49720E-02 2.53209E-03 -5.34267E-02 2.49720E-02 -2.53209E-03 -6.07733E-02 7.50000E-04
GW 69 1 -2.49720E-02 -2.53209E-03 -5.34267E-02 -2.49720E-02 2.53209E-03 -6.07733E-02 7.50000E-04
GW 70 1 2.49720E-02 -2.53209E-03 -6.07733E-02 2.39554E-02 -7.49318E-03 -6.81200E-02 7.50000E-04
GW 71 1 -2.49720E-02 2.53209E-03 -6.07733E-02 -2.39554E-02 7.49318E-03 -6.81200E-02 7.50000E-04
GW 72 1 2.39554E-02 -7.49318E-03 -6.81200E-02 2.19637E-02 -1.21493E-02 -7.54667E-02 7.50000E-04
GW 73 1 -2.39554E-02 7.49318E-03 -6.81200E-02 -2.19637E-02 1.21493E-02 -7.54667E-02 7.50000E-04
GW 74 1 2.19637E-02 -1.21493E-02 -7.54667E-02 1.90780E-02 -1.63108E-02 -8.28133E-02 7.50000E-04
GW 75 1 -2.19637E-02 1.21493E-02 -7.54667E-02 -1.90780E-02 1.63108E-02 -8.28133E-02 7.50000E-04
GW 76 1 1.90780E-02 -1.63108E-02 -8.28133E-02 1.54156E-02 -1.98083E-02 -9.01600E-02 7.50000E-04
GW 77 1 -1.90780E-02 1.63108E-02 -8.28133E-02 -1.54156E-02 1.98083E-02 -9.01600E-02 7.50000E-04
GW 78 1 1.54156E-02 -1.98083E-02 -9.01600E-02 1.11257E-02 -2.24995E-02 -9.75067E-02 7.50000E-04
GW 79 1 -1.54156E-02 1.98083E-02 -9.01600E-02 -1.11257E-02 2.24995E-02 -9.75067E-02 7.50000E-04
GW 80 1 1.11257E-02 -2.24995E-02 -9.75067E-02 6.38290E-03 -2.42749E-02 -1.04853E-01 7.50000E-04
GW 81 1 -1.11257E-02 2.24995E-02 -9.75067E-02 -6.38290E-03 2.42749E-02 -1.04853E-01 7.50000E-04
GW 82 1 6.38290E-03 -2.42749E-02 -1.04853E-01 1.38028E-03 -2.50620E-02 -1.12200E-01 7.50000E-04
GW 83 1 -6.38290E-03 2.42749E-02 -1.04853E-01 -1.38028E-03 2.50620E-02 -1.12200E-01 7.50000E-04
GW 84 1 1.38028E-03 -2.50620E-02 -1.12200E-01 6.83033E-04 -2.48227E-02 -1.13200E-01 7.50000E-04
GW 85 1 -1.38028E-03 2.50620E-02 -1.12200E-01 -6.83033E-04 2.48227E-02 -1.13200E-01 7.50000E-04
GW 86 1 6.83033E-04 -2.48227E-02 -1.13200E-01 1.77644E-04 -2.40993E-02 -1.13932E-01 7.50000E-04
GW 87 1 -6.83033E-04 2.48227E-02 -1.13200E-01 -1.77644E-04 2.40993E-02 -1.13932E-01 7.50000E-04
GW 88 1 1.77644E-04 -2.40993E-02 -1.13932E-01 -2.38881E-15 -2.31000E-02 -1.14200E-01 7.50000E-04
GW 89 1 -1.77644E-04 2.40993E-02 -1.13932E-01 2.38881E-15 2.31000E-02 -1.14200E-01 7.50000E-04
GW 90 9 -2.38881E-15 -2.31000E-02 -1.14200E-01 2.38881E-15 2.31000E-02 -1.14200E-01 7.50000E-04
GW 91 1 3.53553E-03 3.53553E-03 0.00000E+00 -3.53553E-03 -3.53553E-03 0.00000E+00 7.50000E-04
GE 0
FR 0 131 0 0 8.20000E+02 1.00000E+00
EX 0 91 1 0 1.00000E+00 0.00000E+00
RP 0 37 37 1001 0.00000E+00 0.00000E+00 5.00000E+00 1.00000E+01 0.00000E+00 0.00000E+00
EN
