CM NEC2 Input File produced by helix2nec
CM Parameters:
CM Helix 0: H1=1.08300E+02 D1=4.61000E+01 H2=1.13900E+02 D2=5.01000E+01
CM turns=5.00000E-01 R=2.00000E+00, wire=1.50000E+00
CM offset=0.00000E+00 theta=0.00000E+00 feed
CM 8.20000E+02 - 9.50000E+02 MHz in 1.00000E+00 MHz steps
CE
GW 1 5 3.53553E-03 3.53553E-03 0.00000E+00 2.10500E-02 0.00000E+00 0.00000E+00 7.50000E-04
GW 2 5 -3.53553E-03 -3.53553E-03 0.00000E+00 -2.10500E-02 -0.00000E+00 0.00000E+00 7.50000E-04
GW 3 1 2.10500E-02 0.00000E+00 0.00000E+00 2.20493E-02 -1.71387E-04 -2.67949E-04 7.50000E-04
GW 4 1 -2.10500E-02 -0.00000E+00 0.00000E+00 -2.20493E-02 1.71387E-04 -2.67949E-04 7.50000E-04
GW 5 1 2.20493E-02 -1.71387E-04 -2.67949E-04 2.27725E-02 -6.60775E-04 -1.00000E-03 7.50000E-04
GW 6 1 -2.20493E-02 1.71387E-04 -2.67949E-04 -2.27725E-02 6.60775E-04 -1.00000E-03 7.50000E-04
GW 7 1 2.27725E-02 -6.60775E-04 -1.00000E-03 2.30112E-02 -1.33653E-03 -2.00000E-03 7.50000E-04
GW 8 1 -2.27725E-02 6.60775E-04 -1.00000E-03 -2.30112E-02 1.33653E-03 -2.00000E-03 7.50000E-04
GW 9 1 2.30112E-02 -1.33653E-03 -2.00000E-03 2.22769E-02 -5.91948E-03 -8.95333E-03 7.50000E-04
GW 10 1 -2.30112E-02 1.33653E-03 -2.00000E-03 -2.22769E-02 5.91948E-03 -8.95333E-03 7.50000E-04
GW 11 1 2.22769E-02 -5.91948E-03 -8.95333E-03 2.06394E-02 -1.02624E-02 -1.59067E-02 7.50000E-04
GW 12 1 -2.22769E-02 5.91948E-03 -8.95333E-03 -2.06394E-02 1.02624E-02 -1.59067E-02 7.50000E-04
GW 13 1 2.06394E-02 -1.02624E-02 -1.59067E-02 1.81650E-02 -1.41892E-02 -2.28600E-02 7.50000E-04
GW 14 1 -2.06394E-02 1.02624E-02 -1.59067E-02 -1.81650E-02 1.41892E-02 -2.28600E-02 7.50000E-04
GW 15 1 1.81650E-02 -1.41892E-02 -2.28600E-02 1.49541E-02 -1.75407E-02 -2.98133E-02 7.50000E-04
GW 16 1 -1.81650E-02 1.41892E-02 -2.28600E-02 -1.49541E-02 1.75407E-02 -2.98133E-02 7.50000E-04
GW 17 1 1.49541E-02 -1.75407E-02 -2.98133E-02 1.11368E-02 -2.01810E-02 -3.67667E-02 7.50000E-04
GW 18 1 -1.49541E-02 1.75407E-02 -2.98133E-02 -1.11368E-02 2.01810E-02 -3.67667E-02 7.50000E-04
GW 19 1 1.11368E-02 -2.01810E-02 -3.67667E-02 6.86800E-03 -2.20030E-02 -4.37200E-02 7.50000E-04
GW 20 1 -1.11368E-02 2.01810E-02 -3.67667E-02 -6.86800E-03 2.20030E-02 -4.37200E-02 7.50000E-04
GW 21 1 6.86800E-03 -2.20030E-02 -4.37200E-02 2.32070E-03 -2.29329E-02 -5.06733E-02 7.50000E-04
GW 22 1 -6.86800E-03 2.20030E-02 -4.37200E-02 -2.32070E-03 2.29329E-02 -5.06733E-02 7.50000E-04
GW 23 1 2.32070E-03 -2.29329E-02 -5.06733E-02 -2.32070E-03 -2.29329E-02 -5.76267E-02 7.50000E-04
GW 24 1 -2.32070E-03 2.29329E-02 -5.06733E-02 2.32070E-03 2.29329E-02 -5.76267E-02 7.50000E-04
GW 25 1 -2.32070E-03 -2.29329E-02 -5.76267E-02 -6.86800E-03 -2.20030E-02 -6.45800E-02 7.50000E-04
GW 26 1 2.32070E-03 2.29329E-02 -5.76267E-02 6.86800E-03 2.20030E-02 -6.45800E-02 7.50000E-04
GW 27 1 -6.86800E-03 -2.20030E-02 -6.45800E-02 -1.11368E-02 -2.01810E-02 -7.15333E-02 7.50000E-04
GW 28 1 6.86800E-03 2.20030E-02 -6.45800E-02 1.11368E-02 2.01810E-02 -7.15333E-02 7.50000E-04
GW 29 1 -1.11368E-02 -2.01810E-02 -7.15333E-02 -1.49541E-02 -1.75407E-02 -7.84867E-02 7.50000E-04
GW 30 1 1.11368E-02 2.01810E-02 -7.15333E-02 1.49541E-02 1.75407E-02 -7.84867E-02 7.50000E-04
GW 31 1 -1.49541E-02 -1.75407E-02 -7.84867E-02 -1.81650E-02 -1.41892E-02 -8.54400E-02 7.50000E-04
GW 32 1 1.49541E-02 1.75407E-02 -7.84867E-02 1.81650E-02 1.41892E-02 -8.54400E-02 7.50000E-04
GW 33 1 -1.81650E-02 -1.41892E-02 -8.54400E-02 -2.06394E-02 -1.02624E-02 -9.23933E-02 7.50000E-04
GW 34 1 1.81650E-02 1.41892E-02 -8.54400E-02 2.06394E-02 1.02624E-02 -9.23933E-02 7.50000E-04
GW 35 1 -2.06394E-02 -1.02624E-02 -9.23933E-02 -2.22769E-02 -5.91948E-03 -9.93467E-02 7.50000E-04
GW 36 1 2.06394E-02 1.02624E-02 -9.23933E-02 2.22769E-02 5.91948E-03 -9.93467E-02 7.50000E-04
GW 37 1 -2.22769E-02 -5.91948E-03 -9.93467E-02 -2.30112E-02 -1.33653E-03 -1.06300E-01 7.50000E-04
GW 38 1 2.22769E-02 5.91948E-03 -9.93467E-02 2.30112E-02 1.33653E-03 -1.06300E-01 7.50000E-04
GW 39 1 -2.30112E-02 -1.33653E-03 -1.06300E-01 -2.27725E-02 -6.60775E-04 -1.07300E-01 7.50000E-04
GW 40 1 2.30112E-02 1.33653E-03 -1.06300E-01 2.27725E-02 6.60775E-04 -1.07300E-01 7.50000E-04
GW 41 1 -2.27725E-02 -6.60775E-04 -1.07300E-01 -2.20493E-02 -1.71387E-04 -1.08032E-01 7.50000E-04
GW 42 1 2.27725E-02 6.60775E-04 -1.07300E-01 2.20493E-02 1.71387E-04 -1.08032E-01 7.50000E-04
GW 43 1 -2.20493E-02 -1.71387E-04 -1.08032E-01 -2.10500E-02 4.35363E-15 -1.08300E-01 7.50000E-04
GW 44 1 2.20493E-02 1.71387E-04 -1.08032E-01 2.10500E-02 -4.35363E-15 -1.08300E-01 7.50000E-04
GW 45 9 -2.10500E-02 4.35363E-15 -1.08300E-01 2.10500E-02 -4.35363E-15 -1.08300E-01 7.50000E-04
GW 46 5 3.53553E-03 3.53553E-03 0.00000E+00 -2.38364E-15 2.30500E-02 0.00000E+00 7.50000E-04
GW 47 5 -3.53553E-03 -3.53553E-03 0.00000E+00 2.38364E-15 -2.30500E-02 0.00000E+00 7.50000E-04
GW 48 1 -2.38364E-15 2.30500E-02 0.00000E+00 1.77742E-04 2.40493E-02 -2.67949E-04 7.50000E-04
GW 49 1 2.38364E-15 -2.30500E-02 0.00000E+00 -1.77742E-04 -2.40493E-02 -2.67949E-04 7.50000E-04
GW 50 1 1.77742E-04 2.40493E-02 -2.67949E-04 6.83452E-04 2.47726E-02 -1.00000E-03 7.50000E-04
GW 51 1 -1.77742E-04 -2.40493E-02 -2.67949E-04 -6.83452E-04 -2.47726E-02 -1.00000E-03 7.50000E-04
GW 52 1 6.83452E-04 2.47726E-02 -1.00000E-03 1.38116E-03 2.50119E-02 -2.00000E-03 7.50000E-04
GW 53 1 -6.83452E-04 -2.47726E-02 -1.00000E-03 -1.38116E-03 -2.50119E-02 -2.00000E-03 7.50000E-04
GW 54 1 1.38116E-03 2.50119E-02 -2.00000E-03 6.37323E-03 2.42257E-02 -9.32667E-03 7.50000E-04
GW 55 1 -1.38116E-03 -2.50119E-02 -2.00000E-03 -6.37323E-03 -2.42257E-02 -9.32667E-03 7.50000E-04
GW 56 1 6.37323E-03 2.42257E-02 -9.32667E-03 1.11059E-02 2.24535E-02 -1.66533E-02 7.50000E-04
GW 57 1 -6.37323E-03 -2.42257E-02 -9.32667E-03 -1.11059E-02 -2.24535E-02 -1.66533E-02 7.50000E-04
GW 58 1 1.11059E-02 2.24535E-02 -1.66533E-02 1.53866E-02 1.97675E-02 -2.39800E-02 7.50000E-04
GW 59 1 -1.11059E-02 -2.24535E-02 -1.66533E-02 -1.53866E-02 -1.97675E-02 -2.39800E-02 7.50000E-04
GW 60 1 1.53866E-02 1.97675E-02 -2.39800E-02 1.90411E-02 1.62770E-02 -3.13067E-02 7.50000E-04
GW 61 1 -1.53866E-02 -1.97675E-02 -2.39800E-02 -1.90411E-02 -1.62770E-02 -3.13067E-02 7.50000E-04
GW 62 1 1.90411E-02 1.62770E-02 -3.13067E-02 2.19206E-02 1.21240E-02 -3.86333E-02 7.50000E-04
GW 63 1 -1.90411E-02 -1.62770E-02 -3.13067E-02 -2.19206E-02 -1.21240E-02 -3.86333E-02 7.50000E-04
GW 64 1 2.19206E-02 1.21240E-02 -3.86333E-02 2.39079E-02 7.47756E-03 -4.59600E-02 7.50000E-04
GW 65 1 -2.19206E-02 -1.21240E-02 -3.86333E-02 -2.39079E-02 -7.47756E-03 -4.59600E-02 7.50000E-04
GW 66 1 2.39079E-02 7.47756E-03 -4.59600E-02 2.49222E-02 2.52680E-03 -5.32867E-02 7.50000E-04
GW 67 1 -2.39079E-02 -7.47756E-03 -4.59600E-02 -2.49222E-02 -2.52680E-03 -5.32867E-02 7.50000E-04
GW 68 1 2.49222E-02 2.52680E-03 -5.32867E-02 2.49222E-02 -2.52680E-03 -6.06133E-02 7.50000E-04
GW 69 1 -2.49222E-02 -2.52680E-03 -5.32867E-02 -2.49222E-02 2.52680E-03 -6.06133E-02 7.50000E-04
GW 70 1 2.49222E-02 -2.52680E-03 -6.06133E-02 2.39079E-02 -7.47756E-03 -6.79400E-02 7.50000E-04
GW 71 1 -2.49222E-02 2.52680E-03 -6.06133E-02 -2.39079E-02 7.47756E-03 -6.79400E-02 7.50000E-04
GW 72 1 2.39079E-02 -7.47756E-03 -6.79400E-02 2.19206E-02 -1.21240E-02 -7.52667E-02 7.50000E-04
GW 73 1 -2.39079E-02 7.47756E-03 -6.79400E-02 -2.19206E-02 1.21240E-02 -7.52667E-02 7.50000E-04
GW 74 1 2.19206E-02 -1.21240E-02 -7.52667E-02 1.90411E-02 -1.62770E-02 -8.25933E-02 7.50000E-04
GW 75 1 -2.19206E-02 1.21240E-02 -7.52667E-02 -1.90411E-02 1.62770E-02 -8.25933E-02 7.50000E-04
GW 76 1 1.90411E-02 -1.62770E-02 -8.25933E-02 1.53866E-02 -1.97675E-02 -8.99200E-02 7.50000E-04
GW 77 1 -1.90411E-02 1.62770E-02 -8.25933E-02 -1.53866E-02 1.97675E-02 -8.99200E-02 7.50000E-04
GW 78 1 1.53866E-02 -1.97675E-02 -8.99200E-02 1.11059E-02 -2.24535E-02 -9.72467E-02 7.50000E-04
GW 79 1 -1.53866E-02 1.97675E-02 -8.99200E-02 -1.11059E-02 2.24535E-02 -9.72467E-02 7.50000E-04
GW 80 1 1.11059E-02 -2.24535E-02 -9.72467E-02 6.37323E-03 -2.42257E-02 -1.04573E-01 7.50000E-04
GW 81 1 -1.11059E-02 2.24535E-02 -9.72467E-02 -6.37323E-03 2.42257E-02 -1.04573E-01 7.50000E-04
GW 82 1 6.37323E-03 -2.42257E-02 -1.04573E-01 1.38116E-03 -2.50119E-02 -1.11900E-01 7.50000E-04
GW 83 1 -6.37323E-03 2.42257E-02 -1.04573E-01 -1.38116E-03 2.50119E-02 -1.11900E-01 7.50000E-04
GW 84 1 1.38116E-03 -2.50119E-02 -1.11900E-01 6.83452E-04 -2.47726E-02 -1.12900E-01 7.50000E-04
GW 85 1 -1.38116E-03 2.50119E-02 -1.11900E-01 -6.83452E-04 2.47726E-02 -1.12900E-01 7.50000E-04
GW 86 1 6.83452E-04 -2.47726E-02 -1.12900E-01 1.77742E-04 -2.40493E-02 -1.13632E-01 7.50000E-04
GW 87 1 -6.83452E-04 2.47726E-02 -1.12900E-01 -1.77742E-04 2.40493E-02 -1.13632E-01 7.50000E-04
GW 88 1 1.77742E-04 -2.40493E-02 -1.13632E-01 -2.38364E-15 -2.30500E-02 -1.13900E-01 7.50000E-04
GW 89 1 -1.77742E-04 2.40493E-02 -1.13632E-01 2.38364E-15 2.30500E-02 -1.13900E-01 7.50000E-04
GW 90 9 -2.38364E-15 -2.30500E-02 -1.13900E-01 2.38364E-15 2.30500E-02 -1.13900E-01 7.50000E-04
GW 91 1 3.53553E-03 3.53553E-03 0.00000E+00 -3.53553E-03 -3.53553E-03 0.00000E+00 7.50000E-04
GE 0
FR 0 131 0 0 8.20000E+02 1.00000E+00
EX 0 91 1 0 1.00000E+00 0.00000E+00
RP 0 37 37 1001 0.00000E+00 0.00000E+00 5.00000E+00 1.00000E+01 0.00000E+00 0.00000E+00
EN
